# `model_configure` generated with NEMSpy unknown
total_member:            1
print_esmf:              .true.
namelist:                atm_namelist
PE_MEMBER01:             499
start_year:              2018
start_month:             08
start_day:               31
start_hour:              0
start_minute:            0
start_second:            0
nhours_fcst:             168
RUN_CONTINUE:            .false.
ENS_SPS:                 .false.
