# `model_configure` generated with NEMSpy unknown
total_member:            1
print_esmf:              .true.
namelist:                atm_namelist
PE_MEMBER01:             5
start_year:              2012
start_month:             10
start_day:               16
start_hour:              0
start_minute:            0
start_second:            0
nhours_fcst:             168
RUN_CONTINUE:            .false.
ENS_SPS:                 .false.
